20

C      2.157565   -0.083929   -0.657071
C      1.356816   -0.577924    0.539199
C     -0.152568   -0.293047    0.517144
O     -0.686255   -0.869240    1.730601
C     -0.914013   -0.936380   -0.661406
C     -2.025730    0.038058   -0.912090
C     -1.818202    1.203852   -0.291689
C     -0.532391    1.204619    0.476188
H      1.823434   -0.543745   -1.590538
H      2.102403    1.002248   -0.765020
H      3.213322   -0.344604   -0.525781
H      1.787704   -0.141120    1.449867
H      1.511391   -1.660361    0.640447
H     -0.331845   -0.364442    2.481617
H     -0.316889   -1.028859   -1.572081
H     -1.319854   -1.918170   -0.396506
H     -2.878844   -0.183846   -1.538200
H     -2.480543    2.056585   -0.348666
H     -0.688991    1.614795    1.478945
H      0.193490    1.825510   -0.054962
