52

C      6.702809   -0.182763    2.492944
C      5.599734   -0.140422    1.450883
C      4.215673   -0.105079    1.917115
C      3.967543   -0.117365    3.414936
C      3.117563   -0.037676    1.004607
C      1.696529    0.042199    1.166505
F      1.102154    0.085112    2.369908
C      0.981763    0.099980   -0.007654
C     -0.442166    0.149926   -0.153026
N     -1.241649   -0.718341    0.425135
C     -2.511243   -0.402715    0.009290
C     -3.720648   -1.052366    0.333341
C     -3.710521   -2.242466    1.254504
C     -4.901200   -0.539895   -0.236958
C     -4.890239    0.557104   -1.099411
N     -6.162803    0.862343   -1.526287
C     -6.943175   -0.016647   -0.948027
N     -6.234062   -0.881212   -0.163650
C     -6.826108   -1.953811    0.594949
C     -3.678720    1.200270   -1.431052
C     -3.696738    2.370125   -2.377994
C     -2.499292    0.704312   -0.838135
N     -1.166717    1.075980   -0.872356
C     -0.634062    2.268535   -1.487333
S      2.036200    0.023793   -1.351552
C      3.402201   -0.043892   -0.346380
C      4.877927   -0.114685   -0.844862
S      5.357661   -0.137355   -2.475749
C      7.005545   -0.221217   -2.038714
C      7.149279   -0.226588   -0.674206
F      8.357976   -0.292497   -0.096339
C      5.922144   -0.161234    0.058980
H      7.691692   -0.027359    2.057080
H      6.565393    0.611517    3.233326
H      6.707239   -1.156192    2.993098
H      4.519152   -0.933877    3.891316
H      2.915842   -0.275663    3.660930
H      4.273654    0.838180    3.851907
H     -4.309604   -2.035279    2.146042
H     -2.698762   -2.491503    1.589689
H     -4.111322   -3.121288    0.740971
H     -8.018082   -0.070222   -1.063146
H     -6.610565   -1.795678    1.653846
H     -7.909326   -1.955116    0.445030
H     -6.413721   -2.901890    0.243106
H     -2.907945    2.270841   -3.129235
H     -4.645832    2.437718   -2.919450
H     -3.559739    3.302942   -1.823095
H     -1.311636    3.103475   -1.299835
H     -0.523112    2.085081   -2.558356
H      0.330054    2.526494   -1.044100
H      7.783262   -0.263633   -2.787403
